6
Properties=species:S:1:pos:R:3 pbc="F F F"
O        0.35185364      -0.30400191      -0.11191130
H       -0.62908997       1.04757819       0.63738688
H        2.05206266       0.41155224      -0.13837883
O        5.45873435       1.56749771      -0.21025323
H        6.30760484       0.14171339       0.56877859
H        5.87992520       1.39545251      -1.98503472
